03_OpenDSS_Circuits/EPRI_ckt24/Loads_remake_2.dss
New load.278071200 phases=1 kV=0.24 bus1=G2000RN2800_N274196_sec_1.3 xfkVA=3.25119253 pf=0.98 status=variable model=4 CVRwatts=0.8 CVRvars=3 conn=wye Vminpu=0.7 yearly=LS_PhaseC daily=LS_PhaseC
New load.559661200 phases=1 kV=0.24 bus1=G2000RN2800_N274196_sec_2.3 xfkVA=6.16056007 pf=0.98 status=variable model=4 CVRwatts=0.8 CVRvars=3 conn=wye Vminpu=0.7 yearly=LS_PhaseC daily=LS_PhaseC
New load.928661200 phases=1 kV=0.24 bus1=G2000RN2800_N274196_sec_3.3 xfkVA=2.39020478 pf=0.98 status=variable model=4 CVRwatts=0.8 CVRvars=3 conn=wye Vminpu=0.7 yearly=LS_PhaseC daily=LS_PhaseC
New load.931661200 phases=1 kV=0.24 bus1=G2000RN2800_N274196_sec_4.3 xfkVA=2.86310551 pf=0.98 status=variable model=4 CVRwatts=0.8 CVRvars=3 conn=wye Vminpu=0.7 yearly=LS_PhaseC daily=LS_PhaseC
New load.475882200 phases=1 kV=0.24 bus1=G2000RO4500_N274220_sec_1.3 xfkVA=2.06637058 pf=0.98 status=variable model=4 CVRwatts=0.8 CVRvars=3 conn=wye Vminpu=0.7 yearly=LS_PhaseC daily=LS_PhaseC
New load.710035200 phases=1 kV=0.24 bus1=G2000RO4500_N274220_sec_2.3 xfkVA=6.92388354 pf=0.98 status=variable model=4 CVRwatts=0.8 CVRvars=3 conn=wye Vminpu=0.7 yearly=LS_PhaseC daily=LS_PhaseC
New load.942206200 phases=1 kV=0.24 bus1=G2000RO4500_N274220_sec_3.3 xfkVA=5.43064807 pf=0.98 status=variable model=4 CVRwatts=0.8 CVRvars=3 conn=wye Vminpu=0.7 yearly=LS_PhaseC daily=LS_PhaseC
New load.306450100 phases=1 kV=0.24 bus1=G2000SK5500_N274137_sec_1.2 xfkVA=3.42949409 pf=0.98 status=variable model=4 CVRwatts=0.8 CVRvars=3 conn=wye Vminpu=0.7 yearly=LS_PhaseB daily=LS_PhaseB
New load.804302100 phases=1 kV=0.24 bus1=G2000SK5500_N274137_sec_2.2 xfkVA=5.66260074 pf=0.98 status=variable model=4 CVRwatts=0.8 CVRvars=3 conn=wye Vminpu=0.7 yearly=LS_PhaseB daily=LS_PhaseB
New load.805302100 phases=1 kV=0.24 bus1=G2000SK5500_N274137_sec_3.2 xfkVA=3.22035118 pf=0.98 status=variable model=4 CVRwatts=0.8 CVRvars=3 conn=wye Vminpu=0.7 yearly=LS_PhaseB daily=LS_PhaseB
New load.806302100 phases=1 kV=0.24 bus1=G2000SK5500_N274137_sec_4.2 xfkVA=4.14912564 pf=0.98 status=variable model=4 CVRwatts=0.8 CVRvars=3 conn=wye Vminpu=0.7 yearly=LS_PhaseB daily=LS_PhaseB
New load.807302100 phases=1 kV=0.24 bus1=G2000SK5500_N274137_sec_5.2 xfkVA=3.14164147 pf=0.98 status=variable model=4 CVRwatts=0.8 CVRvars=3 conn=wye Vminpu=0.7 yearly=LS_PhaseB daily=LS_PhaseB
New load.808302100 phases=1 kV=0.24 bus1=G2000SK5500_N274137_sec_6.2 xfkVA=5.45795552 pf=0.98 status=variable model=4 CVRwatts=0.8 CVRvars=3 conn=wye Vminpu=0.7 yearly=LS_PhaseB daily=LS_PhaseB
New load.809302100 phases=1 kV=0.24 bus1=G2000SK5500_N274137_sec_7.2 xfkVA=4.32903353 pf=0.98 status=variable model=4 CVRwatts=0.8 CVRvars=3 conn=wye Vminpu=0.7 yearly=LS_PhaseB daily=LS_PhaseB
New load.810302100 phases=1 kV=0.24 bus1=G2000SK5500_N274137_sec_8.2 xfkVA=3.47896876 pf=0.98 status=variable model=4 CVRwatts=0.8 CVRvars=3 conn=wye Vminpu=0.7 yearly=LS_PhaseB daily=LS_PhaseB
New load.799302100 phases=1 kV=0.24 bus1=G2000SK7800_N274150_sec_1.2 xfkVA=4.02543897 pf=0.98 status=variable model=4 CVRwatts=0.8 CVRvars=3 conn=wye Vminpu=0.7 yearly=LS_PhaseB daily=LS_PhaseB
New load.800302100 phases=1 kV=0.24 bus1=G2000SK7800_N274150_sec_2.2 xfkVA=3.41824985 pf=0.98 status=variable model=4 CVRwatts=0.8 CVRvars=3 conn=wye Vminpu=0.7 yearly=LS_PhaseB daily=LS_PhaseB
New load.801302100 phases=1 kV=0.24 bus1=G2000SK7800_N274150_sec_3.2 xfkVA=3.1261641 pf=0.98 status=variable model=4 CVRwatts=0.8 CVRvars=3 conn=wye Vminpu=0.7 yearly=LS_PhaseB daily=LS_PhaseB
New load.802302100 phases=1 kV=0.24 bus1=G2000SK7800_N274150_sec_4.2 xfkVA=3.00128687 pf=0.98 status=variable model=4 CVRwatts=0.8 CVRvars=3 conn=wye Vminpu=0.7 yearly=LS_PhaseB daily=LS_PhaseB
New load.803302100 phases=1 kV=0.24 bus1=G2000SK7800_N274150_sec_5.2 xfkVA=6.85131565 pf=0.98 status=variable model=4 CVRwatts=0.8 CVRvars=3 conn=wye Vminpu=0.7 yearly=LS_PhaseB daily=LS_PhaseB
New load.129739676 phases=1 kV=0.24 bus1=G2000SN2500_N274191_sec_1.3 xfkVA=0.02313101 pf=0.98 status=variable model=4 CVRwatts=0.8 CVRvars=3 conn=wye Vminpu=0.7 yearly=LS_PhaseC daily=LS_PhaseC
New load.442661200 phases=1 kV=0.24 bus1=G2000SN2500_N274191_sec_2.3 xfkVA=3.30037917 pf=0.98 status=variable model=4 CVRwatts=0.8 CVRvars=3 conn=wye Vminpu=0.7 yearly=LS_PhaseC daily=LS_PhaseC
New load.478502200 phases=1 kV=0.24 bus1=G2000SN2500_N274191_sec_3.3 xfkVA=7.45687173 pf=0.98 status=variable model=4 CVRwatts=0.8 CVRvars=3 conn=wye Vminpu=0.7 yearly=LS_PhaseC daily=LS_PhaseC
New load.600302200 phases=1 kV=0.24 bus1=G2000SN2500_N274191_sec_4.3 xfkVA=5.26323625 pf=0.98 status=variable model=4 CVRwatts=0.8 CVRvars=3 conn=wye Vminpu=0.7 yearly=LS_PhaseC daily=LS_PhaseC
New load.853661200 phases=1 kV=0.24 bus1=G2000SN2500_N274191_sec_5.3 xfkVA=5.69793979 pf=0.98 status=variable model=4 CVRwatts=0.8 CVRvars=3 conn=wye Vminpu=0.7 yearly=LS_PhaseC daily=LS_PhaseC
New load.595612200 phases=1 kV=0.24 bus1=G2000SN8400_N274183_sec_1.3 xfkVA=7.74224286 pf=0.98 status=variable model=4 CVRwatts=0.8 CVRvars=3 conn=wye Vminpu=0.7 yearly=LS_PhaseC daily=LS_PhaseC
New load.853674200 phases=1 kV=0.24 bus1=G2000SN8400_N274183_sec_2.3 xfkVA=6.53623965 pf=0.98 status=variable model=4 CVRwatts=0.8 CVRvars=3 conn=wye Vminpu=0.7 yearly=LS_PhaseC daily=LS_PhaseC
New load.465362200 phases=1 kV=0.24 bus1=G2000SN8800_N274200_sec_1.3 xfkVA=5.20864351 pf=0.98 status=variable model=4 CVRwatts=0.8 CVRvars=3 conn=wye Vminpu=0.7 yearly=LS_PhaseC daily=LS_PhaseC
New load.47924200 phases=1 kV=0.24 bus1=G2000SN8800_N274200_sec_2.3 xfkVA=4.5237528 pf=0.98 status=variable model=4 CVRwatts=0.8 CVRvars=3 conn=wye Vminpu=0.7 yearly=LS_PhaseC daily=LS_PhaseC
New load.968175200 phases=1 kV=0.24 bus1=G2000SN8800_N274200_sec_3.3 xfkVA=5.30790304 pf=0.98 status=variable model=4 CVRwatts=0.8 CVRvars=3 conn=wye Vminpu=0.7 yearly=LS_PhaseC daily=LS_PhaseC
New load.193104200 phases=1 kV=0.24 bus1=G2000SO1800_N274227_sec_1.3 xfkVA=6.29677605 pf=0.98 status=variable model=4 CVRwatts=0.8 CVRvars=3 conn=wye Vminpu=0.7 yearly=LS_PhaseC daily=LS_PhaseC
New load.350491200 phases=1 kV=0.24 bus1=G2000SO1800_N274227_sec_2.3 xfkVA=5.91090465 pf=0.98 status=variable model=4 CVRwatts=0.8 CVRvars=3 conn=wye Vminpu=0.7 yearly=LS_PhaseC daily=LS_PhaseC
New load.541781200 phases=1 kV=0.24 bus1=G2000SO1800_N274227_sec_3.3 xfkVA=7.16290402 pf=0.98 status=variable model=4 CVRwatts=0.8 CVRvars=3 conn=wye Vminpu=0.7 yearly=LS_PhaseC daily=LS_PhaseC
New load.776171200 phases=1 kV=0.24 bus1=G2000SO1800_N274227_sec_4.3 xfkVA=6.26079447 pf=0.98 status=variable model=4 CVRwatts=0.8 CVRvars=3 conn=wye Vminpu=0.7 yearly=LS_PhaseC daily=LS_PhaseC
New load.205262200 phases=1 kV=0.24 bus1=G2000SO2200_N274207_sec_1.3 xfkVA=5.50261123 pf=0.98 status=variable model=4 CVRwatts=0.8 CVRvars=3 conn=wye Vminpu=0.7 yearly=LS_PhaseC daily=LS_PhaseC
New load.29922200 phases=1 kV=0.24 bus1=G2000SO2200_N274207_sec_2.3 xfkVA=5.36639526 pf=0.98 status=variable model=4 CVRwatts=0.8 CVRvars=3 conn=wye Vminpu=0.7 yearly=LS_PhaseC daily=LS_PhaseC
New load.407091200 phases=1 kV=0.24 bus1=G2000SO2200_N274207_sec_3.3 xfkVA=10.14928632 pf=0.98 status=variable model=4 CVRwatts=0.8 CVRvars=3 conn=wye Vminpu=0.7 yearly=LS_PhaseC daily=LS_PhaseC
New load.601302200 phases=1 kV=0.24 bus1=G2000SO2200_N274207_sec_4.3 xfkVA=5.83894149 pf=0.98 status=variable model=4 CVRwatts=0.8 CVRvars=3 conn=wye Vminpu=0.7 yearly=LS_PhaseC daily=LS_PhaseC
New load.982593200 phases=1 kV=0.24 bus1=G2000SO2200_N274207_sec_5.3 xfkVA=5.51803191 pf=0.98 status=variable model=4 CVRwatts=0.8 CVRvars=3 conn=wye Vminpu=0.7 yearly=LS_PhaseC daily=LS_PhaseC
New load.134661200 phases=1 kV=0.24 bus1=G2000SO9400_N274214_sec_1.3 xfkVA=6.09949774 pf=0.98 status=variable model=4 CVRwatts=0.8 CVRvars=3 conn=wye Vminpu=0.7 yearly=LS_PhaseC daily=LS_PhaseC
New load.921192200 phases=1 kV=0.24 bus1=G2000SO9400_N274214_sec_2.3 xfkVA=7.11938935 pf=0.98 status=variable model=4 CVRwatts=0.8 CVRvars=3 conn=wye Vminpu=0.7 yearly=LS_PhaseC daily=LS_PhaseC
New load.967175200 phases=1 kV=0.24 bus1=G2000SO9400_N274214_sec_3.3 xfkVA=7.78939114 pf=0.98 status=variable model=4 CVRwatts=0.8 CVRvars=3 conn=wye Vminpu=0.7 yearly=LS_PhaseC daily=LS_PhaseC
New load.461257702 phases=1 kV=0.24 bus1=G2000SO9800_N274224_sec_1.3 xfkVA=7.28813054 pf=0.98 status=variable model=4 CVRwatts=0.8 CVRvars=3 conn=wye Vminpu=0.7 yearly=LS_PhaseC daily=LS_PhaseC
New load.515694140 phases=1 kV=0.24 bus1=G2000SO9800_N274224_sec_2.3 xfkVA=5.7322375 pf=0.98 status=variable model=4 CVRwatts=0.8 CVRvars=3 conn=wye Vminpu=0.7 yearly=LS_PhaseC daily=LS_PhaseC
New load.758002200 phases=1 kV=0.24 bus1=G2000SO9800_N274224_sec_3.3 xfkVA=2.63534036 pf=0.98 status=variable model=4 CVRwatts=0.8 CVRvars=3 conn=wye Vminpu=0.7 yearly=LS_PhaseC daily=LS_PhaseC
New load.924412200 phases=1 kV=0.24 bus1=G2000SO9800_N274224_sec_4.3 xfkVA=8.43209655 pf=0.98 status=variable model=4 CVRwatts=0.8 CVRvars=3 conn=wye Vminpu=0.7 yearly=LS_PhaseC daily=LS_PhaseC
New load.142928100 phases=1 kV=0.24 bus1=G2000TJ2700_N274103_sec_1.3 xfkVA=6.70831534 pf=0.98 status=variable model=4 CVRwatts=0.8 CVRvars=3 conn=wye Vminpu=0.7 yearly=LS_PhaseC daily=LS_PhaseC
New load.492202100 phases=1 kV=0.24 bus1=G2000TJ2700_N274103_sec_2.3 xfkVA=2.16339234 pf=0.98 status=variable model=4 CVRwatts=0.8 CVRvars=3 conn=wye Vminpu=0.7 yearly=LS_PhaseC daily=LS_PhaseC
New load.495202100 phases=1 kV=0.24 bus1=G2000TJ2700_N274103_sec_3.3 xfkVA=3.39126367 pf=0.98 status=variable model=4 CVRwatts=0.8 CVRvars=3 conn=wye Vminpu=0.7 yearly=LS_PhaseC daily=LS_PhaseC
New load.660202100 phases=1 kV=0.24 bus1=G2000TJ2700_N274103_sec_4.3 xfkVA=5.26905224 pf=0.98 status=variable model=4 CVRwatts=0.8 CVRvars=3 conn=wye Vminpu=0.7 yearly=LS_PhaseC daily=LS_PhaseC
New load.284450100 phases=1 kV=0.24 bus1=G2000TL1200_N283789_sec_1.2 xfkVA=3.85002878 pf=0.98 status=variable model=4 CVRwatts=0.8 CVRvars=3 conn=wye Vminpu=0.7 yearly=LS_PhaseB daily=LS_PhaseB
New load.793102100 phases=1 kV=0.24 bus1=G2000TL1200_N283789_sec_2.2 xfkVA=2.70536485 pf=0.98 status=variable model=4 CVRwatts=0.8 CVRvars=3 conn=wye Vminpu=0.7 yearly=LS_PhaseB daily=LS_PhaseB
New load.795302100 phases=1 kV=0.24 bus1=G2000TL1200_N283789_sec_3.2 xfkVA=3.33054476 pf=0.98 status=variable model=4 CVRwatts=0.8 CVRvars=3 conn=wye Vminpu=0.7 yearly=LS_PhaseB daily=LS_PhaseB
New load.796302100 phases=1 kV=0.24 bus1=G2000TL1200_N283789_sec_4.2 xfkVA=3.13714378 pf=0.98 status=variable model=4 CVRwatts=0.8 CVRvars=3 conn=wye Vminpu=0.7 yearly=LS_PhaseB daily=LS_PhaseB
New load.797302100 phases=1 kV=0.24 bus1=G2000TL1200_N283789_sec_5.2 xfkVA=2.15489669 pf=0.98 status=variable model=4 CVRwatts=0.8 CVRvars=3 conn=wye Vminpu=0.7 yearly=LS_PhaseB daily=LS_PhaseB
New load.798302100 phases=1 kV=0.24 bus1=G2000TL1200_N283789_sec_6.2 xfkVA=3.23609312 pf=0.98 status=variable model=4 CVRwatts=0.8 CVRvars=3 conn=wye Vminpu=0.7 yearly=LS_PhaseB daily=LS_PhaseB
New load.242450100 phases=1 kV=0.24 bus1=G2000TL5600_N283806_sec_1.2 xfkVA=3.30130972 pf=0.98 status=variable model=4 CVRwatts=0.8 CVRvars=3 conn=wye Vminpu=0.7 yearly=LS_PhaseB daily=LS_PhaseB
New load.275450100 phases=1 kV=0.24 bus1=G2000TL5600_N283806_sec_2.2 xfkVA=3.22260002 pf=0.98 status=variable model=4 CVRwatts=0.8 CVRvars=3 conn=wye Vminpu=0.7 yearly=LS_PhaseB daily=LS_PhaseB
New load.286450100 phases=1 kV=0.24 bus1=G2000TL5600_N283806_sec_3.2 xfkVA=3.48796416 pf=0.98 status=variable model=4 CVRwatts=0.8 CVRvars=3 conn=wye Vminpu=0.7 yearly=LS_PhaseB daily=LS_PhaseB
New load.287450100 phases=1 kV=0.24 bus1=G2000TL5600_N283806_sec_4.2 xfkVA=4.60789075 pf=0.98 status=variable model=4 CVRwatts=0.8 CVRvars=3 conn=wye Vminpu=0.7 yearly=LS_PhaseB daily=LS_PhaseB
New load.855918309 phases=1 kV=0.24 bus1=G2000TN4400_N283873_sec_1.3 xfkVA=2.0224128 pf=0.98 status=variable model=4 CVRwatts=0.8 CVRvars=3 conn=wye Vminpu=0.7 yearly=LS_PhaseC daily=LS_PhaseC
New load.969175200 phases=1 kV=0.24 bus1=G2000TN4400_N283873_sec_2.3 xfkVA=11.37017846 pf=0.98 status=variable model=4 CVRwatts=0.8 CVRvars=3 conn=wye Vminpu=0.7 yearly=LS_PhaseC daily=LS_PhaseC
New load.970175200 phases=1 kV=0.24 bus1=G2000TN4400_N283873_sec_3.3 xfkVA=6.83649971 pf=0.98 status=variable model=4 CVRwatts=0.8 CVRvars=3 conn=wye Vminpu=0.7 yearly=LS_PhaseC daily=LS_PhaseC
New load.971175200 phases=1 kV=0.24 bus1=G2000TN4400_N283873_sec_4.3 xfkVA=3.09193417 pf=0.98 status=variable model=4 CVRwatts=0.8 CVRvars=3 conn=wye Vminpu=0.7 yearly=LS_PhaseC daily=LS_PhaseC
New load.972175200 phases=1 kV=0.24 bus1=G2000TN4400_N283873_sec_5.3 xfkVA=9.97558215 pf=0.98 status=variable model=4 CVRwatts=0.8 CVRvars=3 conn=wye Vminpu=0.7 yearly=LS_PhaseC daily=LS_PhaseC
New load.141450100 phases=1 kV=0.24 bus1=G2000UH9400_N283633_sec_1.3 xfkVA=3.32829591 pf=0.98 status=variable model=4 CVRwatts=0.8 CVRvars=3 conn=wye Vminpu=0.7 yearly=LS_PhaseC daily=LS_PhaseC
New load.82450100 phases=1 kV=0.24 bus1=G2000UH9400_N283633_sec_2.3 xfkVA=3.22709772 pf=0.98 status=variable model=4 CVRwatts=0.8 CVRvars=3 conn=wye Vminpu=0.7 yearly=LS_PhaseC daily=LS_PhaseC
New load.84450100 phases=1 kV=0.24 bus1=G2000UH9400_N283633_sec_3.3 xfkVA=2.70086715 pf=0.98 status=variable model=4 CVRwatts=0.8 CVRvars=3 conn=wye Vminpu=0.7 yearly=LS_PhaseC daily=LS_PhaseC
New load.516028100 phases=1 kV=0.24 bus1=G2000UH9800_N283647_sec_1.3 xfkVA=3.22035118 pf=0.98 status=variable model=4 CVRwatts=0.8 CVRvars=3 conn=wye Vminpu=0.7 yearly=LS_PhaseC daily=LS_PhaseC
New load.981528100 phases=1 kV=0.24 bus1=G2000UH9800_N283647_sec_2.3 xfkVA=3.1753742 pf=0.98 status=variable model=4 CVRwatts=0.8 CVRvars=3 conn=wye Vminpu=0.7 yearly=LS_PhaseC daily=LS_PhaseC
New load.509202100 phases=1 kV=0.24 bus1=G2000UI3100_N283702_sec_1.3 xfkVA=3.46949634 pf=0.98 status=variable model=4 CVRwatts=0.8 CVRvars=3 conn=wye Vminpu=0.7 yearly=LS_PhaseC daily=LS_PhaseC
New load.606118100 phases=1 kV=0.24 bus1=G2000UI3100_N283702_sec_2.3 xfkVA=2.52320811 pf=0.98 status=variable model=4 CVRwatts=0.8 CVRvars=3 conn=wye Vminpu=0.7 yearly=LS_PhaseC daily=LS_PhaseC
New load.659202100 phases=1 kV=0.24 bus1=G2000UI3100_N283702_sec_3.3 xfkVA=2.3638806 pf=0.98 status=variable model=4 CVRwatts=0.8 CVRvars=3 conn=wye Vminpu=0.7 yearly=LS_PhaseC daily=LS_PhaseC
New load.84518100 phases=1 kV=0.24 bus1=G2000UI3100_N283702_sec_4.3 xfkVA=3.31248582 pf=0.98 status=variable model=4 CVRwatts=0.8 CVRvars=3 conn=wye Vminpu=0.7 yearly=LS_PhaseC daily=LS_PhaseC
New load.100450100 phases=1 kV=0.24 bus1=G2000UI5400_N283699_sec_1.3 xfkVA=3.42949409 pf=0.98 status=variable model=4 CVRwatts=0.8 CVRvars=3 conn=wye Vminpu=0.7 yearly=LS_PhaseC daily=LS_PhaseC
New load.145450100 phases=1 kV=0.24 bus1=G2000UI5400_N283699_sec_2.3 xfkVA=7.64117862 pf=0.98 status=variable model=4 CVRwatts=0.8 CVRvars=3 conn=wye Vminpu=0.7 yearly=LS_PhaseC daily=LS_PhaseC
New load.80450100 phases=1 kV=0.24 bus1=G2000UI5400_N283699_sec_3.3 xfkVA=4.0501763 pf=0.98 status=variable model=4 CVRwatts=0.8 CVRvars=3 conn=wye Vminpu=0.7 yearly=LS_PhaseC daily=LS_PhaseC
New load.90450100 phases=1 kV=0.24 bus1=G2000UI5400_N283699_sec_4.3 xfkVA=5.7300662 pf=0.98 status=variable model=4 CVRwatts=0.8 CVRvars=3 conn=wye Vminpu=0.7 yearly=LS_PhaseC daily=LS_PhaseC
New load.95450100 phases=1 kV=0.24 bus1=G2000UI5400_N283699_sec_5.3 xfkVA=4.12370684 pf=0.98 status=variable model=4 CVRwatts=0.8 CVRvars=3 conn=wye Vminpu=0.7 yearly=LS_PhaseC daily=LS_PhaseC
New load.960350100 phases=1 kV=0.24 bus1=G2000UI5400_N283699_sec_6.3 xfkVA=3.33054476 pf=0.98 status=variable model=4 CVRwatts=0.8 CVRvars=3 conn=wye Vminpu=0.7 yearly=LS_PhaseC daily=LS_PhaseC
New load.537202100 phases=1 kV=0.24 bus1=G2000UI6400_N283679_sec_1.3 xfkVA=3.30376301 pf=0.98 status=variable model=4 CVRwatts=0.8 CVRvars=3 conn=wye Vminpu=0.7 yearly=LS_PhaseC daily=LS_PhaseC
New load.583908100 phases=1 kV=0.24 bus1=G2000UI6400_N283679_sec_2.3 xfkVA=2.39727259 pf=0.98 status=variable model=4 CVRwatts=0.8 CVRvars=3 conn=wye Vminpu=0.7 yearly=LS_PhaseC daily=LS_PhaseC
New load.642202100 phases=1 kV=0.24 bus1=G2000UI6400_N283679_sec_3.3 xfkVA=1.33895082 pf=0.98 status=variable model=4 CVRwatts=0.8 CVRvars=3 conn=wye Vminpu=0.7 yearly=LS_PhaseC daily=LS_PhaseC
New load.745202100 phases=1 kV=0.24 bus1=G2000UI6400_N283679_sec_4.3 xfkVA=3.01570595 pf=0.98 status=variable model=4 CVRwatts=0.8 CVRvars=3 conn=wye Vminpu=0.7 yearly=LS_PhaseC daily=LS_PhaseC
New load.240450100 phases=1 kV=0.24 bus1=G2000UJ0800_N283722_sec_1.3 xfkVA=4.21883995 pf=0.98 status=variable model=4 CVRwatts=0.8 CVRvars=3 conn=wye Vminpu=0.7 yearly=LS_PhaseC daily=LS_PhaseC
New load.505202100 phases=1 kV=0.24 bus1=G2000UJ0800_N283722_sec_2.3 xfkVA=1.96099597 pf=0.98 status=variable model=4 CVRwatts=0.8 CVRvars=3 conn=wye Vminpu=0.7 yearly=LS_PhaseC daily=LS_PhaseC
New load.643202100 phases=1 kV=0.24 bus1=G2000UJ0800_N283722_sec_3.3 xfkVA=5.19708909 pf=0.98 status=variable model=4 CVRwatts=0.8 CVRvars=3 conn=wye Vminpu=0.7 yearly=LS_PhaseC daily=LS_PhaseC
New load.126450100 phases=1 kV=0.24 bus1=G2000UJ3600_N283731_sec_1.2 xfkVA=2.92125431 pf=0.98 status=variable model=4 CVRwatts=0.8 CVRvars=3 conn=wye Vminpu=0.7 yearly=LS_PhaseB daily=LS_PhaseB
New load.136450100 phases=1 kV=0.24 bus1=G2000UJ3600_N283731_sec_2.2 xfkVA=4.20759571 pf=0.98 status=variable model=4 CVRwatts=0.8 CVRvars=3 conn=wye Vminpu=0.7 yearly=LS_PhaseB daily=LS_PhaseB
New load.85450100 phases=1 kV=0.24 bus1=G2000UJ3600_N283731_sec_3.2 xfkVA=6.79602043 pf=0.98 status=variable model=4 CVRwatts=0.8 CVRvars=3 conn=wye Vminpu=0.7 yearly=LS_PhaseB daily=LS_PhaseB
New load.86450100 phases=1 kV=0.24 bus1=G2000UJ3600_N283731_sec_4.2 xfkVA=3.27882124 pf=0.98 status=variable model=4 CVRwatts=0.8 CVRvars=3 conn=wye Vminpu=0.7 yearly=LS_PhaseB daily=LS_PhaseB
New load.91450100 phases=1 kV=0.24 bus1=G2000UJ3600_N283731_sec_5.2 xfkVA=3.19336499 pf=0.98 status=variable model=4 CVRwatts=0.8 CVRvars=3 conn=wye Vminpu=0.7 yearly=LS_PhaseB daily=LS_PhaseB
New load.99450100 phases=1 kV=0.24 bus1=G2000UJ3600_N283731_sec_6.2 xfkVA=4.58765112 pf=0.98 status=variable model=4 CVRwatts=0.8 CVRvars=3 conn=wye Vminpu=0.7 yearly=LS_PhaseB daily=LS_PhaseB
New load.117450100 phases=1 kV=0.24 bus1=G2000UJ6500_N283747_sec_1.2 xfkVA=4.4617156 pf=0.98 status=variable model=4 CVRwatts=0.8 CVRvars=3 conn=wye Vminpu=0.7 yearly=LS_PhaseB daily=LS_PhaseB
New load.143450100 phases=1 kV=0.24 bus1=G2000UJ6500_N283747_sec_2.2 xfkVA=6.66333837 pf=0.98 status=variable model=4 CVRwatts=0.8 CVRvars=3 conn=wye Vminpu=0.7 yearly=LS_PhaseB daily=LS_PhaseB
New load.1450100 phases=1 kV=0.24 bus1=G2000UJ6500_N283747_sec_3.2 xfkVA=2.47073498 pf=0.98 status=variable model=4 CVRwatts=0.8 CVRvars=3 conn=wye Vminpu=0.7 yearly=LS_PhaseB daily=LS_PhaseB
New load.150450100 phases=1 kV=0.24 bus1=G2000UJ6500_N283747_sec_4.2 xfkVA=3.55992731 pf=0.98 status=variable model=4 CVRwatts=0.8 CVRvars=3 conn=wye Vminpu=0.7 yearly=LS_PhaseB daily=LS_PhaseB
New load.450100 phases=1 kV=0.24 bus1=G2000UJ6500_N283747_sec_5.2 xfkVA=4.18510722 pf=0.98 status=variable model=4 CVRwatts=0.8 CVRvars=3 conn=wye Vminpu=0.7 yearly=LS_PhaseB daily=LS_PhaseB
New load.931250100 phases=1 kV=0.24 bus1=G2000UJ6500_N283747_sec_6.2 xfkVA=5.17684945 pf=0.98 status=variable model=4 CVRwatts=0.8 CVRvars=3 conn=wye Vminpu=0.7 yearly=LS_PhaseB daily=LS_PhaseB
New load.98450100 phases=1 kV=0.24 bus1=G2000UJ6500_N283747_sec_7.2 xfkVA=1.94525402 pf=0.98 status=variable model=4 CVRwatts=0.8 CVRvars=3 conn=wye Vminpu=0.7 yearly=LS_PhaseB daily=LS_PhaseB
New load.637202100 phases=1 kV=0.24 bus1=G2000UK1100_N283753_sec_1.3 xfkVA=3.33054476 pf=0.98 status=variable model=4 CVRwatts=0.8 CVRvars=3 conn=wye Vminpu=0.7 yearly=LS_PhaseC daily=LS_PhaseC
New load.954350100 phases=1 kV=0.24 bus1=G2000UK1100_N283753_sec_2.3 xfkVA=3.42724525 pf=0.98 status=variable model=4 CVRwatts=0.8 CVRvars=3 conn=wye Vminpu=0.7 yearly=LS_PhaseC daily=LS_PhaseC
New load.96450100 phases=1 kV=0.24 bus1=G2000UK1100_N283753_sec_3.3 xfkVA=3.45198258 pf=0.98 status=variable model=4 CVRwatts=0.8 CVRvars=3 conn=wye Vminpu=0.7 yearly=LS_PhaseC daily=LS_PhaseC
New load.974350100 phases=1 kV=0.24 bus1=G2000UK1100_N283753_sec_4.3 xfkVA=4.46621329 pf=0.98 status=variable model=4 CVRwatts=0.8 CVRvars=3 conn=wye Vminpu=0.7 yearly=LS_PhaseC daily=LS_PhaseC
New load.997350100 phases=1 kV=0.24 bus1=G2000UK1100_N283753_sec_5.3 xfkVA=9.3956894 pf=0.98 status=variable model=4 CVRwatts=0.8 CVRvars=3 conn=wye Vminpu=0.7 yearly=LS_PhaseC daily=LS_PhaseC
New load.282450100 phases=1 kV=0.24 bus1=G2000UL1900_N283810_sec_1.2 xfkVA=4.16261873 pf=0.98 status=variable model=4 CVRwatts=0.8 CVRvars=3 conn=wye Vminpu=0.7 yearly=LS_PhaseB daily=LS_PhaseB
New load.285450100 phases=1 kV=0.24 bus1=G2000UL1900_N283810_sec_2.2 xfkVA=3.28556778 pf=0.98 status=variable model=4 CVRwatts=0.8 CVRvars=3 conn=wye Vminpu=0.7 yearly=LS_PhaseB daily=LS_PhaseB
New load.201450100 phases=1 kV=0.24 bus1=G2000UL3200_N283772_sec_1.2 xfkVA=4.31778929 pf=0.98 status=variable model=4 CVRwatts=0.8 CVRvars=3 conn=wye Vminpu=0.7 yearly=LS_PhaseB daily=LS_PhaseB
New load.202450100 phases=1 kV=0.24 bus1=G2000UL3200_N283772_sec_2.2 xfkVA=3.26083045 pf=0.98 status=variable model=4 CVRwatts=0.8 CVRvars=3 conn=wye Vminpu=0.7 yearly=LS_PhaseB daily=LS_PhaseB
New load.241450100 phases=1 kV=0.24 bus1=G2000UL3200_N283772_sec_3.2 xfkVA=3.35294995 pf=0.98 status=variable model=4 CVRwatts=0.8 CVRvars=3 conn=wye Vminpu=0.7 yearly=LS_PhaseB daily=LS_PhaseB
New load.276450100 phases=1 kV=0.24 bus1=G2000UL3200_N283772_sec_4.2 xfkVA=2.07793609 pf=0.98 status=variable model=4 CVRwatts=0.8 CVRvars=3 conn=wye Vminpu=0.7 yearly=LS_PhaseB daily=LS_PhaseB
New load.277450100 phases=1 kV=0.24 bus1=G2000UL3200_N283772_sec_5.2 xfkVA=2.98647092 pf=0.98 status=variable model=4 CVRwatts=0.8 CVRvars=3 conn=wye Vminpu=0.7 yearly=LS_PhaseB daily=LS_PhaseB
New load.279450100 phases=1 kV=0.24 bus1=G2000UL3200_N283772_sec_6.2 xfkVA=4.39200129 pf=0.98 status=variable model=4 CVRwatts=0.8 CVRvars=3 conn=wye Vminpu=0.7 yearly=LS_PhaseB daily=LS_PhaseB
New load.751350100 phases=1 kV=0.24 bus1=G2000UL3200_N283772_sec_7.2 xfkVA=3.36202864 pf=0.98 status=variable model=4 CVRwatts=0.8 CVRvars=3 conn=wye Vminpu=0.7 yearly=LS_PhaseB daily=LS_PhaseB
New load.997250100 phases=1 kV=0.24 bus1=G2000UL7700_N283791_sec_1.2 xfkVA=2.76383491 pf=0.98 status=variable model=4 CVRwatts=0.8 CVRvars=3 conn=wye Vminpu=0.7 yearly=LS_PhaseB daily=LS_PhaseB
New load.998250100 phases=1 kV=0.24 bus1=G2000UL7700_N283791_sec_2.2 xfkVA=3.24733736 pf=0.98 status=variable model=4 CVRwatts=0.8 CVRvars=3 conn=wye Vminpu=0.7 yearly=LS_PhaseB daily=LS_PhaseB
New load.350100 phases=1 kV=0.24 bus1=G2000UM7300_N283821_sec_1.2 xfkVA=3.34228874 pf=0.98 status=variable model=4 CVRwatts=0.8 CVRvars=3 conn=wye Vminpu=0.7 yearly=LS_PhaseB daily=LS_PhaseB
New load.999250100 phases=1 kV=0.24 bus1=G2000UM7300_N283821_sec_2.2 xfkVA=4.45638499 pf=0.98 status=variable model=4 CVRwatts=0.8 CVRvars=3 conn=wye Vminpu=0.7 yearly=LS_PhaseB daily=LS_PhaseB
New load.966175200 phases=1 kV=0.24 bus1=G2000UO1100_N283873_sec_1.3 xfkVA=3.40956464 pf=0.98 status=variable model=4 CVRwatts=0.8 CVRvars=3 conn=wye Vminpu=0.7 yearly=LS_PhaseC daily=LS_PhaseC
New load.973175200 phases=1 kV=0.24 bus1=G2000UO1100_N283873_sec_2.3 xfkVA=7.03501876 pf=0.98 status=variable model=4 CVRwatts=0.8 CVRvars=3 conn=wye Vminpu=0.7 yearly=LS_PhaseC daily=LS_PhaseC
New load.974175200 phases=1 kV=0.24 bus1=G2000UO1100_N283873_sec_3.3 xfkVA=3.54852798 pf=0.98 status=variable model=4 CVRwatts=0.8 CVRvars=3 conn=wye Vminpu=0.7 yearly=LS_PhaseC daily=LS_PhaseC
New load.975175200 phases=1 kV=0.24 bus1=G2000UO1100_N283873_sec_4.3 xfkVA=7.24098227 pf=0.98 status=variable model=4 CVRwatts=0.8 CVRvars=3 conn=wye Vminpu=0.7 yearly=LS_PhaseC daily=LS_PhaseC
New load.986250100 phases=1 kV=0.24 bus1=G2000VH9100_N283615_sec_1.3 xfkVA=1.21662708 pf=0.98 status=variable model=4 CVRwatts=0.8 CVRvars=3 conn=wye Vminpu=0.7 yearly=LS_PhaseC daily=LS_PhaseC
New load.987250100 phases=1 kV=0.24 bus1=G2000VH9100_N283615_sec_2.3 xfkVA=23.89644958 pf=0.98 status=variable model=4 CVRwatts=0.8 CVRvars=3 conn=wye Vminpu=0.7 yearly=LS_PhaseC daily=LS_PhaseC
New load.108450100 phases=1 kV=0.24 bus1=G2000VH9500_N283675_sec_1.2 xfkVA=5.60637953 pf=0.98 status=variable model=4 CVRwatts=0.8 CVRvars=3 conn=wye Vminpu=0.7 yearly=LS_PhaseB daily=LS_PhaseB
New load.116450100 phases=1 kV=0.24 bus1=G2000VH9500_N283675_sec_2.2 xfkVA=3.12589953 pf=0.98 status=variable model=4 CVRwatts=0.8 CVRvars=3 conn=wye Vminpu=0.7 yearly=LS_PhaseB daily=LS_PhaseB
New load.132450100 phases=1 kV=0.24 bus1=G2000VH9500_N283675_sec_3.2 xfkVA=5.37699697 pf=0.98 status=variable model=4 CVRwatts=0.8 CVRvars=3 conn=wye Vminpu=0.7 yearly=LS_PhaseB daily=LS_PhaseB
New load.133450100 phases=1 kV=0.24 bus1=G2000VH9500_N283675_sec_4.2 xfkVA=6.06514464 pf=0.98 status=variable model=4 CVRwatts=0.8 CVRvars=3 conn=wye Vminpu=0.7 yearly=LS_PhaseB daily=LS_PhaseB
New load.134450100 phases=1 kV=0.24 bus1=G2000VH9500_N283675_sec_5.2 xfkVA=3.05168753 pf=0.98 status=variable model=4 CVRwatts=0.8 CVRvars=3 conn=wye Vminpu=0.7 yearly=LS_PhaseB daily=LS_PhaseB
New load.135450100 phases=1 kV=0.24 bus1=G2000VH9500_N283675_sec_6.2 xfkVA=3.26083045 pf=0.98 status=variable model=4 CVRwatts=0.8 CVRvars=3 conn=wye Vminpu=0.7 yearly=LS_PhaseB daily=LS_PhaseB
New load.151450100 phases=1 kV=0.24 bus1=G2000VH9500_N283675_sec_7.2 xfkVA=3.15963226 pf=0.98 status=variable model=4 CVRwatts=0.8 CVRvars=3 conn=wye Vminpu=0.7 yearly=LS_PhaseB daily=LS_PhaseB
New load.153450100 phases=1 kV=0.24 bus1=G2000VH9500_N283675_sec_8.2 xfkVA=3.24508851 pf=0.98 status=variable model=4 CVRwatts=0.8 CVRvars=3 conn=wye Vminpu=0.7 yearly=LS_PhaseB daily=LS_PhaseB
New load.154450100 phases=1 kV=0.24 bus1=G2000VH9500_N283675_sec_9.2 xfkVA=4.01869242 pf=0.98 status=variable model=4 CVRwatts=0.8 CVRvars=3 conn=wye Vminpu=0.7 yearly=LS_PhaseB daily=LS_PhaseB
New load.31450100 phases=1 kV=0.24 bus1=G2000VH9500_N283675_sec_10.2 xfkVA=3.4204987 pf=0.98 status=variable model=4 CVRwatts=0.8 CVRvars=3 conn=wye Vminpu=0.7 yearly=LS_PhaseB daily=LS_PhaseB
New load.46450100 phases=1 kV=0.24 bus1=G2000VH9500_N283675_sec_11.2 xfkVA=2.98871977 pf=0.98 status=variable model=4 CVRwatts=0.8 CVRvars=3 conn=wye Vminpu=0.7 yearly=LS_PhaseB daily=LS_PhaseB
New load.589503200 phases=1 kV=0.24 bus1=G2000VH9500_N283675_sec_12.2 xfkVA=0.61618451 pf=0.98 status=variable model=4 CVRwatts=0.8 CVRvars=3 conn=wye Vminpu=0.7 yearly=LS_PhaseB daily=LS_PhaseB
New load.81450100 phases=1 kV=0.24 bus1=G2000VH9500_N283675_sec_13.2 xfkVA=2.81555843 pf=0.98 status=variable model=4 CVRwatts=0.8 CVRvars=3 conn=wye Vminpu=0.7 yearly=LS_PhaseB daily=LS_PhaseB
New load.953350100 phases=1 kV=0.24 bus1=G2000VH9500_N283675_sec_14.2 xfkVA=3.38451712 pf=0.98 status=variable model=4 CVRwatts=0.8 CVRvars=3 conn=wye Vminpu=0.7 yearly=LS_PhaseB daily=LS_PhaseB
New load.105450100 phases=1 kV=0.24 bus1=G2000VI6200_N283684_sec_1.2 xfkVA=2.79756764 pf=0.98 status=variable model=4 CVRwatts=0.8 CVRvars=3 conn=wye Vminpu=0.7 yearly=LS_PhaseB daily=LS_PhaseB
New load.109450100 phases=1 kV=0.24 bus1=G2000VI6200_N283684_sec_2.2 xfkVA=3.5436402 pf=0.98 status=variable model=4 CVRwatts=0.8 CVRvars=3 conn=wye Vminpu=0.7 yearly=LS_PhaseB daily=LS_PhaseB
New load.11450100 phases=1 kV=0.24 bus1=G2000VI6200_N283684_sec_3.2 xfkVA=3.33054476 pf=0.98 status=variable model=4 CVRwatts=0.8 CVRvars=3 conn=wye Vminpu=0.7 yearly=LS_PhaseB daily=LS_PhaseB
New load.122450100 phases=1 kV=0.24 bus1=G2000VI6200_N283684_sec_4.2 xfkVA=5.31852691 pf=0.98 status=variable model=4 CVRwatts=0.8 CVRvars=3 conn=wye Vminpu=0.7 yearly=LS_PhaseB daily=LS_PhaseB
New load.123450100 phases=1 kV=0.24 bus1=G2000VI6200_N283684_sec_5.2 xfkVA=3.267577 pf=0.98 status=variable model=4 CVRwatts=0.8 CVRvars=3 conn=wye Vminpu=0.7 yearly=LS_PhaseB daily=LS_PhaseB
New load.127450100 phases=1 kV=0.24 bus1=G2000VI6200_N283684_sec_6.2 xfkVA=6.11686816 pf=0.98 status=variable model=4 CVRwatts=0.8 CVRvars=3 conn=wye Vminpu=0.7 yearly=LS_PhaseB daily=LS_PhaseB
New load.147450100 phases=1 kV=0.24 bus1=G2000VI6200_N283684_sec_7.2 xfkVA=5.14536557 pf=0.98 status=variable model=4 CVRwatts=0.8 CVRvars=3 conn=wye Vminpu=0.7 yearly=LS_PhaseB daily=LS_PhaseB
New load.148450100 phases=1 kV=0.24 bus1=G2000VI6200_N283684_sec_8.2 xfkVA=2.16543675 pf=0.98 status=variable model=4 CVRwatts=0.8 CVRvars=3 conn=wye Vminpu=0.7 yearly=LS_PhaseB daily=LS_PhaseB
New load.149450100 phases=1 kV=0.24 bus1=G2000VI6200_N283684_sec_9.2 xfkVA=4.49224542 pf=0.98 status=variable model=4 CVRwatts=0.8 CVRvars=3 conn=wye Vminpu=0.7 yearly=LS_PhaseB daily=LS_PhaseB
New load.3450100 phases=1 kV=0.24 bus1=G2000VI6200_N283684_sec_10.2 xfkVA=3.267577 pf=0.98 status=variable model=4 CVRwatts=0.8 CVRvars=3 conn=wye Vminpu=0.7 yearly=LS_PhaseB daily=LS_PhaseB
New load.47450100 phases=1 kV=0.24 bus1=G2000VI6200_N283684_sec_11.2 xfkVA=5.85150402 pf=0.98 status=variable model=4 CVRwatts=0.8 CVRvars=3 conn=wye Vminpu=0.7 yearly=LS_PhaseB daily=LS_PhaseB
New load.486350100 phases=1 kV=0.24 bus1=G2000VI6200_N283684_sec_12.2 xfkVA=3.05843408 pf=0.98 status=variable model=4 CVRwatts=0.8 CVRvars=3 conn=wye Vminpu=0.7 yearly=LS_PhaseB daily=LS_PhaseB
New load.987350100 phases=1 kV=0.24 bus1=G2000VI6200_N283684_sec_13.2 xfkVA=5.08464666 pf=0.98 status=variable model=4 CVRwatts=0.8 CVRvars=3 conn=wye Vminpu=0.7 yearly=LS_PhaseB daily=LS_PhaseB
New load.142450100 phases=1 kV=0.24 bus1=G2000VJ0200_N283716_sec_1.2 xfkVA=5.12512593 pf=0.98 status=variable model=4 CVRwatts=0.8 CVRvars=3 conn=wye Vminpu=0.7 yearly=LS_PhaseB daily=LS_PhaseB
New load.146450100 phases=1 kV=0.24 bus1=G2000VJ0200_N283716_sec_2.2 xfkVA=2.79347882 pf=0.98 status=variable model=4 CVRwatts=0.8 CVRvars=3 conn=wye Vminpu=0.7 yearly=LS_PhaseB daily=LS_PhaseB
New load.485350100 phases=1 kV=0.24 bus1=G2000VJ0200_N283716_sec_3.2 xfkVA=3.51529108 pf=0.98 status=variable model=4 CVRwatts=0.8 CVRvars=3 conn=wye Vminpu=0.7 yearly=LS_PhaseB daily=LS_PhaseB
New load.487350100 phases=1 kV=0.24 bus1=G2000VJ0200_N283716_sec_4.2 xfkVA=5.1181068 pf=0.98 status=variable model=4 CVRwatts=0.8 CVRvars=3 conn=wye Vminpu=0.7 yearly=LS_PhaseB daily=LS_PhaseB
New load.979350100 phases=1 kV=0.24 bus1=G2000VJ0200_N283716_sec_5.2 xfkVA=4.50314893 pf=0.98 status=variable model=4 CVRwatts=0.8 CVRvars=3 conn=wye Vminpu=0.7 yearly=LS_PhaseB daily=LS_PhaseB
New load.988350100 phases=1 kV=0.24 bus1=G2000VJ0200_N283716_sec_6.2 xfkVA=5.28165942 pf=0.98 status=variable model=4 CVRwatts=0.8 CVRvars=3 conn=wye Vminpu=0.7 yearly=LS_PhaseB daily=LS_PhaseB
New load.999350100 phases=1 kV=0.24 bus1=G2000VJ0200_N283716_sec_7.2 xfkVA=2.33771218 pf=0.98 status=variable model=4 CVRwatts=0.8 CVRvars=3 conn=wye Vminpu=0.7 yearly=LS_PhaseB daily=LS_PhaseB
New load.11350100 phases=1 kV=0.24 bus1=G2000VL8700_N283799_sec_1.3 xfkVA=4.30446278 pf=0.98 status=variable model=4 CVRwatts=0.8 CVRvars=3 conn=wye Vminpu=0.7 yearly=LS_PhaseC daily=LS_PhaseC
New load.12350100 phases=1 kV=0.24 bus1=G2000VL8700_N283799_sec_2.3 xfkVA=4.25382204 pf=0.98 status=variable model=4 CVRwatts=0.8 CVRvars=3 conn=wye Vminpu=0.7 yearly=LS_PhaseC daily=LS_PhaseC
New load.310450100 phases=1 kV=0.24 bus1=G2000VL8700_N283799_sec_3.3 xfkVA=6.29544339 pf=0.98 status=variable model=4 CVRwatts=0.8 CVRvars=3 conn=wye Vminpu=0.7 yearly=LS_PhaseC daily=LS_PhaseC
New load.1350100 phases=1 kV=0.24 bus1=G2000VM1500_N283827_sec_1.2 xfkVA=6.74321414 pf=0.98 status=variable model=4 CVRwatts=0.8 CVRvars=3 conn=wye Vminpu=0.7 yearly=LS_PhaseB daily=LS_PhaseB
New load.2350100 phases=1 kV=0.24 bus1=G2000VM1500_N283827_sec_2.2 xfkVA=2.92650163 pf=0.98 status=variable model=4 CVRwatts=0.8 CVRvars=3 conn=wye Vminpu=0.7 yearly=LS_PhaseB daily=LS_PhaseB
New load.3350100 phases=1 kV=0.24 bus1=G2000VM6800_N283833_sec_1.2 xfkVA=3.32896223 pf=0.98 status=variable model=4 CVRwatts=0.8 CVRvars=3 conn=wye Vminpu=0.7 yearly=LS_PhaseB daily=LS_PhaseB
New load.4350100 phases=1 kV=0.24 bus1=G2000VM6800_N283833_sec_2.2 xfkVA=5.43988144 pf=0.98 status=variable model=4 CVRwatts=0.8 CVRvars=3 conn=wye Vminpu=0.7 yearly=LS_PhaseB daily=LS_PhaseB
New load.189720633 phases=1 kV=0.24 bus1=G2000VO8200_N1309805_sec_1.3 xfkVA=6.28560935 pf=0.98 status=variable model=4 CVRwatts=0.8 CVRvars=3 conn=wye Vminpu=0.7 yearly=LS_PhaseC daily=LS_PhaseC
New load.981350100 phases=1 kV=0.24 bus1=G2000WH5900_N283675_sec_1.2 xfkVA=3.22260002 pf=0.98 status=variable model=4 CVRwatts=0.8 CVRvars=3 conn=wye Vminpu=0.7 yearly=LS_PhaseB daily=LS_PhaseB
New load.996350100 phases=1 kV=0.24 bus1=G2000WH5900_N283675_sec_2.2 xfkVA=4.67310736 pf=0.98 status=variable model=4 CVRwatts=0.8 CVRvars=3 conn=wye Vminpu=0.7 yearly=LS_PhaseB daily=LS_PhaseB
New load.112450100 phases=1 kV=0.24 bus1=G2000WI4400_N283710_sec_1.2 xfkVA=5.39941731 pf=0.98 status=variable model=4 CVRwatts=0.8 CVRvars=3 conn=wye Vminpu=0.7 yearly=LS_PhaseB daily=LS_PhaseB
New load.121450100 phases=1 kV=0.24 bus1=G2000WI4400_N283710_sec_2.2 xfkVA=3.11690414 pf=0.98 status=variable model=4 CVRwatts=0.8 CVRvars=3 conn=wye Vminpu=0.7 yearly=LS_PhaseB daily=LS_PhaseB
New load.125450100 phases=1 kV=0.24 bus1=G2000WI4400_N283710_sec_3.2 xfkVA=3.32120863 pf=0.98 status=variable model=4 CVRwatts=0.8 CVRvars=3 conn=wye Vminpu=0.7 yearly=LS_PhaseB daily=LS_PhaseB
New load.4450100 phases=1 kV=0.24 bus1=G2000WI4400_N283710_sec_4.2 xfkVA=5.31852691 pf=0.98 status=variable model=4 CVRwatts=0.8 CVRvars=3 conn=wye Vminpu=0.7 yearly=LS_PhaseB daily=LS_PhaseB
New load.938350100 phases=1 kV=0.24 bus1=G2000WI4400_N283710_sec_5.2 xfkVA=3.2797753 pf=0.98 status=variable model=4 CVRwatts=0.8 CVRvars=3 conn=wye Vminpu=0.7 yearly=LS_PhaseB daily=LS_PhaseB
New load.973350100 phases=1 kV=0.24 bus1=G2000WI4400_N283710_sec_6.2 xfkVA=5.67200502 pf=0.98 status=variable model=4 CVRwatts=0.8 CVRvars=3 conn=wye Vminpu=0.7 yearly=LS_PhaseB daily=LS_PhaseB
New load.982350100 phases=1 kV=0.24 bus1=G2000WI4400_N283710_sec_7.2 xfkVA=2.5012648 pf=0.98 status=variable model=4 CVRwatts=0.8 CVRvars=3 conn=wye Vminpu=0.7 yearly=LS_PhaseB daily=LS_PhaseB
New load.996250100 phases=1 kV=0.24 bus1=G2000WK0800_N283765_sec_1.2 xfkVA=9.11097154 pf=0.98 status=variable model=4 CVRwatts=0.8 CVRvars=3 conn=wye Vminpu=0.7 yearly=LS_PhaseB daily=LS_PhaseB
New load.994250100 phases=1 kV=0.24 bus1=G2000WK8200_N283746_sec_1.2 xfkVA=3.32338933 pf=0.98 status=variable model=4 CVRwatts=0.8 CVRvars=3 conn=wye Vminpu=0.7 yearly=LS_PhaseB daily=LS_PhaseB
New load.183350100 phases=1 kV=0.24 bus1=G2000WL3500_N283799_sec_1.3 xfkVA=3.28781663 pf=0.98 status=variable model=4 CVRwatts=0.8 CVRvars=3 conn=wye Vminpu=0.7 yearly=LS_PhaseC daily=LS_PhaseC
New load.184350100 phases=1 kV=0.24 bus1=G2000WL3500_N283799_sec_2.3 xfkVA=4.30654504 pf=0.98 status=variable model=4 CVRwatts=0.8 CVRvars=3 conn=wye Vminpu=0.7 yearly=LS_PhaseC daily=LS_PhaseC
New load.131450100 phases=1 kV=0.24 bus1=G2000WL4100_N283765_sec_1.2 xfkVA=2.79981649 pf=0.98 status=variable model=4 CVRwatts=0.8 CVRvars=3 conn=wye Vminpu=0.7 yearly=LS_PhaseB daily=LS_PhaseB
New load.982250100 phases=1 kV=0.24 bus1=G2000WL4100_N283765_sec_2.2 xfkVA=5.18359599 pf=0.98 status=variable model=4 CVRwatts=0.8 CVRvars=3 conn=wye Vminpu=0.7 yearly=LS_PhaseB daily=LS_PhaseB
New load.991350100 phases=1 kV=0.24 bus1=G2000WL4100_N283765_sec_3.2 xfkVA=8.54787348 pf=0.98 status=variable model=4 CVRwatts=0.8 CVRvars=3 conn=wye Vminpu=0.7 yearly=LS_PhaseB daily=LS_PhaseB
New load.464509570 phases=1 kV=0.24 bus1=G2000WL9300_N283779_sec_1.2 xfkVA=0.53962178 pf=0.98 status=variable model=4 CVRwatts=0.8 CVRvars=3 conn=wye Vminpu=0.7 yearly=LS_PhaseB daily=LS_PhaseB
New load.937250100 phases=1 kV=0.24 bus1=G2000WL9300_N283779_sec_2.2 xfkVA=4.35243821 pf=0.98 status=variable model=4 CVRwatts=0.8 CVRvars=3 conn=wye Vminpu=0.7 yearly=LS_PhaseB daily=LS_PhaseB
New load.10350100 phases=1 kV=0.24 bus1=G2000WM0100_N283809_sec_1.3 xfkVA=4.1978507 pf=0.98 status=variable model=4 CVRwatts=0.8 CVRvars=3 conn=wye Vminpu=0.7 yearly=LS_PhaseC daily=LS_PhaseC
New load.610350100 phases=1 kV=0.24 bus1=G2000WM0100_N283809_sec_2.3 xfkVA=2.59067357 pf=0.98 status=variable model=4 CVRwatts=0.8 CVRvars=3 conn=wye Vminpu=0.7 yearly=LS_PhaseC daily=LS_PhaseC
New load.185350100 phases=1 kV=0.24 bus1=G2000WM3200_N283819_sec_1.3 xfkVA=4.17836067 pf=0.98 status=variable model=4 CVRwatts=0.8 CVRvars=3 conn=wye Vminpu=0.7 yearly=LS_PhaseC daily=LS_PhaseC
New load.186350100 phases=1 kV=0.24 bus1=G2000WM3200_N283819_sec_2.3 xfkVA=4.16936528 pf=0.98 status=variable model=4 CVRwatts=0.8 CVRvars=3 conn=wye Vminpu=0.7 yearly=LS_PhaseC daily=LS_PhaseC
New load.625350100 phases=1 kV=0.24 bus1=G2000WM3200_N283819_sec_3.3 xfkVA=3.5501823 pf=0.98 status=variable model=4 CVRwatts=0.8 CVRvars=3 conn=wye Vminpu=0.7 yearly=LS_PhaseC daily=LS_PhaseC
New load.693350100 phases=1 kV=0.24 bus1=G2000WM3200_N283819_sec_4.3 xfkVA=3.22501545 pf=0.98 status=variable model=4 CVRwatts=0.8 CVRvars=3 conn=wye Vminpu=0.7 yearly=LS_PhaseC daily=LS_PhaseC
New load.187350100 phases=1 kV=0.24 bus1=G2000WM6400_N283824_sec_1.3 xfkVA=2.84654257 pf=0.98 status=variable model=4 CVRwatts=0.8 CVRvars=3 conn=wye Vminpu=0.7 yearly=LS_PhaseC daily=LS_PhaseC
New load.188350100 phases=1 kV=0.24 bus1=G2000WM6400_N283824_sec_2.3 xfkVA=5.52783641 pf=0.98 status=variable model=4 CVRwatts=0.8 CVRvars=3 conn=wye Vminpu=0.7 yearly=LS_PhaseC daily=LS_PhaseC
New load.189350100 phases=1 kV=0.24 bus1=G2000WM6400_N283824_sec_3.3 xfkVA=3.00646069 pf=0.98 status=variable model=4 CVRwatts=0.8 CVRvars=3 conn=wye Vminpu=0.7 yearly=LS_PhaseC daily=LS_PhaseC
New load.608350100 phases=1 kV=0.24 bus1=G2000WM6400_N283824_sec_4.3 xfkVA=5.6558542 pf=0.98 status=variable model=4 CVRwatts=0.8 CVRvars=3 conn=wye Vminpu=0.7 yearly=LS_PhaseC daily=LS_PhaseC
New load.624350100 phases=1 kV=0.24 bus1=G2000WM6400_N283824_sec_5.3 xfkVA=2.91450777 pf=0.98 status=variable model=4 CVRwatts=0.8 CVRvars=3 conn=wye Vminpu=0.7 yearly=LS_PhaseC daily=LS_PhaseC
New load.6350100 phases=1 kV=0.24 bus1=G2000WN0100_N283840_sec_1.2 xfkVA=8.5342971 pf=0.98 status=variable model=4 CVRwatts=0.8 CVRvars=3 conn=wye Vminpu=0.7 yearly=LS_PhaseB daily=LS_PhaseB
New load.7350100 phases=1 kV=0.24 bus1=G2000WN0100_N283840_sec_2.2 xfkVA=3.49954156 pf=0.98 status=variable model=4 CVRwatts=0.8 CVRvars=3 conn=wye Vminpu=0.7 yearly=LS_PhaseB daily=LS_PhaseB
New load.381342160 phases=1 kV=0.24 bus1=G2000WN3300_N283848_sec_1.2 xfkVA=3.50145725 pf=0.98 status=variable model=4 CVRwatts=0.8 CVRvars=3 conn=wye Vminpu=0.7 yearly=LS_PhaseB daily=LS_PhaseB
New load.8350100 phases=1 kV=0.24 bus1=G2000WN3300_N283848_sec_2.2 xfkVA=7.46284568 pf=0.98 status=variable model=4 CVRwatts=0.8 CVRvars=3 conn=wye Vminpu=0.7 yearly=LS_PhaseB daily=LS_PhaseB
New load.9350100 phases=1 kV=0.24 bus1=G2000WN3300_N283848_sec_3.2 xfkVA=5.41056312 pf=0.98 status=variable model=4 CVRwatts=0.8 CVRvars=3 conn=wye Vminpu=0.7 yearly=LS_PhaseB daily=LS_PhaseB
...
